reference-matpower/RTS_GMLC/results/RTS_GMLC.m
function mpc = RTS_GMLC
%RTS_GMLC

%% MATPOWER Case Format : Version 2
mpc.version = '2';

%%-----  Power Flow Data  -----%%
%% system MVA base
mpc.baseMVA = 100;

%% bus data
%	bus_i	type	Pd	Qd	Gs	Bs	area	Vm	Va	baseKV	zone	Vmax	Vmin
mpc.bus = [
	101	2	108	22	0	0	1	1.0468	-8.57501538	138	11	1.05	0.95;
	102	2	97	20	0	0	1	1.0467	-8.63384398	138	12	1.05	0.95;
	103	1	180	37	0	0	1	1.01133642	-7.98023923	138	11	1.05	0.95;
	104	1	74	15	0	0	1	1.01746995	-10.7448819	138	11	1.05	0.95;
	105	1	71	14	0	0	1	1.03539164	-10.9282917	138	11	1.05	0.95;
	106	1	136	28	0	-100	1	1.03242031	-13.1574035	138	12	1.05	0.95;
	107	2	125	25	0	0	1	1.05	-3.98891207	138	12	1.05	0.95;
	108	1	171	35	0	0	1	1.0167151	-9.34243545	138	12	1.05	0.95;
	109	1	175	36	0	0	1	1.02662838	-8.45983484	138	13	1.05	0.95;
	110	1	195	40	0	0	1	1.04999561	-10.2029058	138	13	1.05	0.95;
	111	1	0	0	0	0	1	1.02704792	-4.08337844	230	13	1.05	0.95;
	112	1	0	0	0	0	1	1.0196552	-2.39568012	230	13	1.05	0.95;
	113	3	265	54	0	0	1	1.0347	0	230	14	1.05	0.95;
	114	2	194	39	0	0	1	1.0441	-2.55178381	230	16	1.05	0.95;
	115	2	317	64	0	0	1	1.0428	5.9772641	230	16	1.05	0.95;
	116	2	100	20	0	0	1	1.0461	5.82390556	230	16	1.05	0.95;
	117	1	0	0	0	0	1	1.0483347	9.13790354	230	17	1.05	0.95;
	118	2	333	68	0	0	1	1.05	9.95192336	230	17	1.05	0.95;
	119	1	181	37	0	0	1	1.03975647	5.36781648	230	15	1.05	0.95;
	120	1	128	26	0	0	1	1.04389295	6.84664792	230	15	1.05	0.95;
	121	2	0	0	0	0	1	1.05	10.5638375	230	17	1.05	0.95;
	122	2	0	0	0	0	1	1.05	16.5160463	230	17	1.05	0.95;
	123	2	0	0	0	0	1	1.05	8.37842389	230	15	1.05	0.95;
	124	1	0	0	0	0	1	1.01323501	0.844268496	230	16	1.05	0.95;
	201	2	108	22	0	0	2	1.05	-12.6108926	138	21	1.05	0.95;
	202	2	97	20	0	0	2	1.05	-12.6507269	138	22	1.05	0.95;
	203	1	180	37	0	0	2	1.01853807	-9.12071209	138	21	1.05	0.95;
	204	1	74	15	0	0	2	1.0152655	-14.4290498	138	21	1.05	0.95;
	205	1	71	14	0	0	2	1.0334578	-14.92911	138	21	1.05	0.95;
	206	1	136	28	0	-100	2	1.02753067	-17.1546889	138	22	1.05	0.95;
	207	2	125	25	0	0	2	0.9699	-22.3918821	138	22	1.05	0.95;
	208	1	171	35	0	0	2	0.963766712	-21.6956836	138	22	1.05	0.95;
	209	1	175	36	0	0	2	1.0200513	-11.8457331	138	23	1.05	0.95;
	210	1	195	40	0	0	2	1.0427852	-14.1631188	138	23	1.05	0.95;
	211	1	0	0	0	0	2	1.02835003	-5.94992036	230	23	1.05	0.95;
	212	1	0	0	0	0	2	1.01778036	-4.16397649	230	23	1.05	0.95;
	213	2	265	54	0	0	2	1.05	-0.39019765	230	24	1.05	0.95;
	214	2	194	39	0	0	2	1.05	-4.12845941	230	26	1.05	0.95;
	215	2	317	64	0	0	2	1.0437	4.74215376	230	26	1.05	0.95;
	216	2	100	20	0	0	2	1.0473	4.67859657	230	26	1.05	0.95;
	217	1	0	0	0	0	2	1.04942234	8.0861589	230	27	1.05	0.95;
	218	2	333	68	0	0	2	1.05	8.90575942	230	27	1.05	0.95;
	219	1	181	37	0	0	2	1.0403576	4.4485945	230	25	1.05	0.95;
	220	1	128	26	0	0	2	1.04402308	6.12270747	230	25	1.05	0.95;
	221	2	0	0	0	0	2	1.05	9.51578445	230	27	1.05	0.95;
	222	2	0	0	0	0	2	1.05	15.4666307	230	27	1.05	0.95;
	223	2	0	0	0	0	2	1.05	7.76155518	230	25	1.05	0.95;
	224	1	0	0	0	0	2	1.01659525	-0.38552091	230	26	1.05	0.95;
	301	2	108	22	0	0	3	1.05	-23.5037742	138	31	1.05	0.95;
	302	2	97	20	0	0	3	1.05	-23.5695457	138	32	1.05	0.95;
	303	1	180	37	0	0	3	0.998171083	-17.7331342	138	31	1.05	0.95;
	304	1	74	15	0	0	3	1.00735108	-23.7570617	138	31	1.05	0.95;
	305	1	71	14	0	0	3	1.02830886	-24.4984188	138	31	1.05	0.95;
	306	1	136	28	0	-100	3	1.0196144	-26.0201616	138	32	1.05	0.95;
	307	2	125	25	0	0	3	0.9568	-30.6615738	138	32	1.05	0.95;
	308	1	171	35	0	0	3	0.950612586	-29.9465185	138	32	1.05	0.95;
	309	1	175	36	0	0	3	1.0069697	-19.7481008	138	33	1.05	0.95;
	310	1	195	40	0	0	3	1.0324424	-22.3138333	138	33	1.05	0.95;
	311	1	0	0	0	0	3	1.01810921	-12.8335358	230	33	1.05	0.95;
	312	1	0	0	0	0	3	1.00255062	-11.0446049	230	33	1.05	0.95;
	313	2	265	54	0	0	3	1.035	-7.62418952	230	34	1.05	0.95;
	314	2	194	39	0	0	3	1.05	-9.65501443	230	36	1.05	0.95;
	315	2	317	64	0	0	3	1.0422	1.50300887	230	36	1.05	0.95;
	316	2	100	20	0	0	3	1.0449	1.16251827	230	36	1.05	0.95;
	317	1	0	0	0	0	3	1.0474757	5.11903662	230	37	1.05	0.95;
	318	2	333	68	0	0	3	1.05	6.21726847	230	37	1.05	0.95;
	319	1	181	37	0	0	3	1.03900202	0.850099343	230	35	1.05	0.95;
	320	1	128	26	0	0	3	1.04357044	2.45633996	230	35	1.05	0.95;
	321	2	0	0	0	0	3	1.05	6.90463018	230	37	1.05	0.95;
	322	2	0	0	0	0	3	1.05	12.9322054	230	37	1.05	0.95;
	323	2	0	0	0	0	3	1.05	4.05702127	230	35	1.05	0.95;
	324	1	0	0	0	0	3	0.999273218	-5.50114463	230	36	1.05	0.95;
	325	1	0	0	0	0	3	1.04922873	4.59818339	230	35	1.05	0.95;
];

%% generator data
%	bus	Pg	Qg	Qmax	Qmin	Vg	mBase	status	Pmax	Pmin	Pc1	Pc2	Qc1min	Qc1max	Qc2min	Qc2max	ramp_agc	ramp_10	ramp_30	ramp_q	apf
mpc.gen = [
	101	8	4.66750102	10	0	1.0468	100	1	20	8	0	0	0	0	0	0	3	3	3	3	0;
	101	8	4.66750102	10	0	1.0468	100	1	20	8	0	0	0	0	0	0	3	3	3	3	0;
	101	76	0.671255588	30	-25	1.0468	100	1	76	30	0	0	0	0	0	0	2	2	2	2	0;
	101	76	0.671255588	30	-25	1.0468	100	1	76	30	0	0	0	0	0	0	2	2	2	2	0;
	102	8	4.20453941	10	0	1.0467	100	1	20	8	0	0	0	0	0	0	3	3	3	3	0;
	102	8	4.20453941	10	0	1.0467	100	1	20	8	0	0	0	0	0	0	3	3	3	3	0;
	102	76	-1.87503324	30	-25	1.0467	100	1	76	30	0	0	0	0	0	0	2	2	2	2	0;
	102	76	-1.87503324	30	-25	1.0467	100	1	76	30	0	0	0	0	0	0	2	2	2	2	0;
	107	355	49.5057611	150	-25	1.05	100	1	355	170	0	0	0	0	0	0	4.14	4.14	4.14	4.14	0;
	113	54.9952915	19.017851	19	-15	1.0347	100	1	55	22	0	0	0	0	0	0	3.7	3.7	3.7	3.7	0;
	113	55	19.017851	19	-15	1.0347	100	1	55	22	0	0	0	0	0	0	3.7	3.7	3.7	3.7	0;
	113	55	19.017851	19	-15	1.0347	100	1	55	22	0	0	0	0	0	0	3.7	3.7	3.7	3.7	0;
	113	55	19.017851	19	-15	1.0347	100	1	55	22	0	0	0	0	0	0	3.7	3.7	3.7	3.7	0;
	115	5	6.00851226	6	0	1.0428	100	1	12	5	0	0	0	0	0	0	1	1	1	1	0;
	115	5	6.00851226	6	0	1.0428	100	1	12	5	0	0	0	0	0	0	1	1	1	1	0;
	115	155	80.1844323	80	-50	1.0428	100	1	155	62	0	0	0	0	0	0	3	3	3	3	0;
	116	155	79.8747494	80	-50	1.0461	100	1	155	62	0	0	0	0	0	0	3	3	3	3	0;
	118	355	68.4524912	150	-25	1.05	100	1	355	170	0	0	0	0	0	0	4.14	4.14	4.14	4.14	0;
	123	155	-3.66379188	80	-50	1.05	100	1	155	62	0	0	0	0	0	0	3	3	3	3	0;
	123	350	37.3756648	150	-25	1.05	100	1	350	140	0	0	0	0	0	0	4	4	4	4	0;
	123	55	-2.88129942	19	-15	1.05	100	1	55	22	0	0	0	0	0	0	3.7	3.7	3.7	3.7	0;
	123	55	-2.88129942	19	-15	1.05	100	1	55	22	0	0	0	0	0	0	3.7	3.7	3.7	3.7	0;
	123	55	-2.88129942	19	-15	1.05	100	1	55	22	0	0	0	0	0	0	3.7	3.7	3.7	3.7	0;
	201	8	5.61722185	10	0	1.05	100	1	20	8	0	0	0	0	0	0	3	3	3	3	0;
	201	8	5.61722185	10	0	1.05	100	1	20	8	0	0	0	0	0	0	3	3	3	3	0;
	201	76	5.89472017	30	-25	1.05	100	1	76	30	0	0	0	0	0	0	2	2	2	2	0;
	202	8	4.9446574	10	0	1.05	100	1	20	8	0	0	0	0	0	0	3	3	3	3	0;
	202	8	4.9446574	10	0	1.05	100	1	20	8	0	0	0	0	0	0	3	3	3	3	0;
	202	76	2.19561568	30	-25	1.05	100	1	76	30	0	0	0	0	0	0	2	2	2	2	0;
	202	76	2.19561568	30	-25	1.05	100	1	76	30	0	0	0	0	0	0	2	2	2	2	0;
	207	55	18.9999391	19	-15	0.9699	100	1	55	22	0	0	0	0	0	0	3.7	3.7	3.7	3.7	0;
	207	55	18.9999391	19	-15	0.9699	100	1	55	22	0	0	0	0	0	0	3.7	3.7	3.7	3.7	0;
	213	355	125.692896	150	-25	1.05	100	1	355	170	0	0	0	0	0	0	4.14	4.14	4.14	4.14	0;
	213	55	14.277477	19	-15	1.05	100	1	55	22	0	0	0	0	0	0	3.7	3.7	3.7	3.7	0;
	213	55	14.277477	19	-15	1.05	100	1	55	22	0	0	0	0	0	0	3.7	3.7	3.7	3.7	0;
	215	55	19.0702274	19	-15	1.0437	100	1	55	22	0	0	0	0	0	0	3.7	3.7	3.7	3.7	0;
	215	55	19.0702274	19	-15	1.0437	100	1	55	22	0	0	0	0	0	0	3.7	3.7	3.7	3.7	0;
	216	155	79.8116329	80	-50	1.0473	100	1	155	62	0	0	0	0	0	0	3	3	3	3	0;
	218	355	60.3115838	150	-25	1.05	100	1	355	170	0	0	0	0	0	0	4.14	4.14	4.14	4.14	0;
	221	296.97	-7.62289694	150	-25	1.05	100	1	355	170	0	0	0	0	0	0	4.14	4.14	4.14	4.14	0;
	223	155	-8.68064867	80	-50	1.05	100	1	155	62	0	0	0	0	0	0	3	3	3	3	0;
	223	155	-8.68064867	80	-50	1.05	100	1	155	62	0	0	0	0	0	0	3	3	3	3	0;
	223	350	30.6222037	150	-25	1.05	100	1	350	140	0	0	0	0	0	0	4	4	4	4	0;
	223	22	-4.19340042	19	-15	1.05	100	1	55	22	0	0	0	0	0	0	3.7	3.7	3.7	3.7	0;
	223	22	-4.19340042	19	-15	1.05	100	1	55	22	0	0	0	0	0	0	3.7	3.7	3.7	3.7	0;
	223	22	-4.19340042	19	-15	1.05	100	1	55	22	0	0	0	0	0	0	3.7	3.7	3.7	3.7	0;
	301	8	8.97401764	10	0	1.05	100	1	20	8	0	0	0	0	0	0	3	3	3	3	0;
	301	8	8.97401764	10	0	1.05	100	1	20	8	0	0	0	0	0	0	3	3	3	3	0;
	301	44	15.51166	19	-15	1.05	100	1	55	22	0	0	0	0	0	0	3.7	3.7	3.7	3.7	0;
	301	44	15.51166	19	-15	1.05	100	1	55	22	0	0	0	0	0	0	3.7	3.7	3.7	3.7	0;
	302	8	7.30680896	10	0	1.05	100	1	20	8	0	0	0	0	0	0	3	3	3	3	0;
	302	8	7.30680896	10	0	1.05	100	1	20	8	0	0	0	0	0	0	3	3	3	3	0;
	302	55	9.84315047	19	-15	1.05	100	1	55	22	0	0	0	0	0	0	3.7	3.7	3.7	3.7	0;
	302	55	9.84315047	19	-15	1.05	100	1	55	22	0	0	0	0	0	0	3.7	3.7	3.7	3.7	0;
	307	55	18.9887536	19	-15	0.9568	100	1	55	22	0	0	0	0	0	0	3.7	3.7	3.7	3.7	0;
	307	55	18.9887536	19	-15	0.9568	100	1	55	22	0	0	0	0	0	0	3.7	3.7	3.7	3.7	0;
	313	355	149.979642	150	-25	1.035	100	1	355	170	0	0	0	0	0	0	4.14	4.14	4.14	4.14	0;
	315	5	6.02943306	6	0	1.0422	100	1	12	5	0	0	0	0	0	0	1	1	1	1	0;
	315	5	6.02943306	6	0	1.0422	100	1	12	5	0	0	0	0	0	0	1	1	1	1	0;
	315	5	6.02943306	6	0	1.0422	100	1	12	5	0	0	0	0	0	0	1	1	1	1	0;
	315	5	6.02943306	6	0	1.0422	100	1	12	5	0	0	0	0	0	0	1	1	1	1	0;
	315	5	6.02943306	6	0	1.0422	100	1	12	5	0	0	0	0	0	0	1	1	1	1	0;
	315	55	19.1667873	19	-15	1.0422	100	1	55	22	0	0	0	0	0	0	3.7	3.7	3.7	3.7	0;
	315	55	19.1667873	19	-15	1.0422	100	1	55	22	0	0	0	0	0	0	3.7	3.7	3.7	3.7	0;
	315	55	60.2943306	60	0	1.0422	100	1	55	22	0	0	0	0	0	0	3.7	3.7	3.7	3.7	0;
	316	155	79.128977	80	-50	1.0449	100	1	155	62	0	0	0	0	0	0	3	3	3	3	0;
	318	355	63.2352136	150	-25	1.05	100	1	355	170	0	0	0	0	0	0	4.14	4.14	4.14	4.14	0;
	321	355	-3.52421435	150	-25	1.05	100	1	355	170	0	0	0	0	0	0	4.14	4.14	4.14	4.14	0;
	322	55	-9.06316165	19	-15	1.05	100	1	55	22	0	0	0	0	0	0	3.7	3.7	3.7	3.7	0;
	322	55	-9.06316165	19	-15	1.05	100	1	55	22	0	0	0	0	0	0	3.7	3.7	3.7	3.7	0;
	323	355	37.4633096	150	-25	1.05	100	1	355	170	0	0	0	0	0	0	4.14	4.14	4.14	4.14	0;
	323	355	37.4633096	150	-25	1.05	100	1	355	170	0	0	0	0	0	0	4.14	4.14	4.14	4.14	0;
	114	0	103.200385	200	-50	1.0441	100	1	0	0	0	0	0	0	0	0	0	0	0	0	0;
	121	400	-21.928709	200	-50	1.05	100	1	400	396	0	0	0	0	0	0	20	20	20	20	0;
	122	50	-6.79350178	16	-10	1.05	100	1	50	0	0	0	0	0	0	0	50	50	50	50	0;
	122	50	-6.79350178	16	-10	1.05	100	1	50	0	0	0	0	0	0	0	50	50	50	50	0;
	122	50	-6.79350178	16	-10	1.05	100	1	50	0	0	0	0	0	0	0	50	50	50	50	0;
	122	50	-6.79350178	16	-10	1.05	100	1	50	0	0	0	0	0	0	0	50	50	50	50	0;
	122	50	-6.79350178	16	-10	1.05	100	1	50	0	0	0	0	0	0	0	50	50	50	50	0;
	122	50	-6.79350178	16	-10	1.05	100	1	50	0	0	0	0	0	0	0	50	50	50	50	0;
	201	50	4.60477681	16	-10	1.05	100	1	50	0	0	0	0	0	0	0	50	50	50	50	0;
	214	0	125.286977	200	-50	1.05	100	1	0	0	0	0	0	0	0	0	0	0	0	0	0;
	215	50	16.0537033	16	-10	1.0437	100	1	50	0	0	0	0	0	0	0	50	50	50	50	0;
	215	50	16.0537033	16	-10	1.0437	100	1	50	0	0	0	0	0	0	0	50	50	50	50	0;
	215	50	16.0537033	16	-10	1.0437	100	1	50	0	0	0	0	0	0	0	50	50	50	50	0;
	222	50	-6.97303251	16	-10	1.05	100	1	50	0	0	0	0	0	0	0	50	50	50	50	0;
	222	50	-6.97303251	16	-10	1.05	100	1	50	0	0	0	0	0	0	0	50	50	50	50	0;
	222	50	-6.97303251	16	-10	1.05	100	1	50	0	0	0	0	0	0	0	50	50	50	50	0;
	222	50	-6.97303251	16	-10	1.05	100	1	50	0	0	0	0	0	0	0	50	50	50	50	0;
	222	50	-6.97303251	16	-10	1.05	100	1	50	0	0	0	0	0	0	0	50	50	50	50	0;
	222	50	-6.97303251	16	-10	1.05	100	1	50	0	0	0	0	0	0	0	50	50	50	50	0;
	314	0	166.722946	200	-50	1.05	100	1	0	0	0	0	0	0	0	0	0	0	0	0	0;
	322	50	-5.46006479	16	-10	1.05	100	1	50	0	0	0	0	0	0	0	50	50	50	50	0;
	322	50	-5.46006479	16	-10	1.05	100	1	50	0	0	0	0	0	0	0	50	50	50	50	0;
	322	50	-5.46006479	16	-10	1.05	100	1	50	0	0	0	0	0	0	0	50	50	50	50	0;
	322	50	-5.46006479	16	-10	1.05	100	1	50	0	0	0	0	0	0	0	50	50	50	50	0;
	320	0	0	0	0	1.04357	100	0	51.6	0	0	0	0	0	0	0	51.6	51.6	51.6	51.6	0;
	314	0	0	0	0	1.05	100	0	51.6	0	0	0	0	0	0	0	51.6	51.6	51.6	51.6	0;
	314	0	0	0	0	1.05	100	0	51.6	0	0	0	0	0	0	0	51.6	51.6	51.6	51.6	0;
	313	0	0	0	0	1.035	100	0	95.1	0	0	0	0	0	0	0	95.1	95.1	95.1	95.1	0;
	314	0	0	0	0	1.05	100	0	92.7	0	0	0	0	0	0	0	92.7	92.7	92.7	92.7	0;
	314	0	0	0	0	1.05	100	0	51.6	0	0	0	0	0	0	0	51.6	51.6	51.6	51.6	0;
	313	0	0	0	0	1.035	100	0	93.3	0	0	0	0	0	0	0	93.3	93.3	93.3	93.3	0;
	310	0	0	0	0	1.03244	100	0	51.7	0	0	0	0	0	0	0	51.7	51.7	51.7	51.7	0;
	324	0	0	0	0	0.999273	100	0	49.7	0	0	0	0	0	0	0	49.7	49.7	49.7	49.7	0;
	312	0	0	0	0	1.00255	100	0	94.1	0	0	0	0	0	0	0	94.1	94.1	94.1	94.1	0;
	310	0	0	0	0	1.03244	100	0	51.6	0	0	0	0	0	0	0	51.6	51.6	51.6	51.6	0;
	324	0	0	0	0	0.999273	100	0	51.6	0	0	0	0	0	0	0	51.6	51.6	51.6	51.6	0;
	324	0	0	0	0	0.999273	100	0	51	0	0	0	0	0	0	0	51	51	51	51	0;
	113	0	0	0	0	1.0347	100	0	93.6	0	0	0	0	0	0	0	93.6	93.6	93.6	93.6	0;
	319	0	0	0	0	1.039	100	0	188.2	0	0	0	0	0	0	0	188.2	188.2	188.2	188.2	0;
	215	0	0	0	0	1.0437	100	0	125.1	0	0	0	0	0	0	0	125.1	125.1	125.1	125.1	0;
	102	0	0	0	0	1.0467	100	0	25.6	0	0	0	0	0	0	0	25.6	25.6	25.6	25.6	0;
	101	0	0	0	0	1.0468	100	0	25.9	0	0	0	0	0	0	0	25.9	25.9	25.9	25.9	0;
	102	0	0	0	0	1.0467	100	0	25.3	0	0	0	0	0	0	0	25.3	25.3	25.3	25.3	0;
	104	0	0	0	0	1.01747	100	0	26.8	0	0	0	0	0	0	0	26.8	26.8	26.8	26.8	0;
	212	0	0	0	0	1.01778	100	0	200	30	0	0	0	0	0	0	20	20	20	20	0;
	101	0	0	0	0	1.0468	100	0	26.7	0	0	0	0	0	0	0	26.7	26.7	26.7	26.7	0;
	101	0	0	0	0	1.0468	100	0	26.2	0	0	0	0	0	0	0	26.2	26.2	26.2	26.2	0;
	101	0	0	0	0	1.0468	100	0	25.8	0	0	0	0	0	0	0	25.8	25.8	25.8	25.8	0;
	103	0	0	0	0	1.01134	100	0	61.5	0	0	0	0	0	0	0	61.5	61.5	61.5	61.5	0;
	119	0	0	0	0	1.03976	100	0	66.6	0	0	0	0	0	0	0	66.6	66.6	66.6	66.6	0;
	308	0	0	0	0	0.950613	100	0	100.9	0	0	0	0	0	0	0	100.9	100.9	100.9	100.9	0;
	313	0	0	0	0	1.035	100	0	101.7	0	0	0	0	0	0	0	101.7	101.7	101.7	101.7	0;
	313	0	0	0	0	1.035	100	0	63.1	0	0	0	0	0	0	0	63.1	63.1	63.1	63.1	0;
	313	0	0	0	0	1.035	100	0	65.4	0	0	0	0	0	0	0	65.4	65.4	65.4	65.4	0;
	313	0	0	0	0	1.035	100	0	67	0	0	0	0	0	0	0	67	67	67	67	0;
	313	0	0	0	0	1.035	100	0	64.8	0	0	0	0	0	0	0	64.8	64.8	64.8	64.8	0;
	313	0	0	0	0	1.035	100	0	63.8	0	0	0	0	0	0	0	63.8	63.8	63.8	63.8	0;
	313	0	0	0	0	1.035	100	0	64.1	0	0	0	0	0	0	0	64.1	64.1	64.1	64.1	0;
	313	0	0	0	0	1.035	100	0	66.6	0	0	0	0	0	0	0	66.6	66.6	66.6	66.6	0;
	313	0	0	0	0	1.035	100	0	62.4	0	0	0	0	0	0	0	62.4	62.4	62.4	62.4	0;
	313	0	0	0	0	1.035	100	0	66.9	0	0	0	0	0	0	0	66.9	66.9	66.9	66.9	0;
	313	0	0	0	0	1.035	100	0	65.2	0	0	0	0	0	0	0	65.2	65.2	65.2	65.2	0;
	313	0	0	0	0	1.035	100	0	27.8	0	0	0	0	0	0	0	27.8	27.8	27.8	27.8	0;
	320	0	0	0	0	1.04357	100	0	27.3	0	0	0	0	0	0	0	27.3	27.3	27.3	27.3	0;
	320	0	0	0	0	1.04357	100	0	27	0	0	0	0	0	0	0	27	27	27	27	0;
	320	0	0	0	0	1.04357	100	0	28.3	0	0	0	0	0	0	0	28.3	28.3	28.3	28.3	0;
	313	0	0	0	0	1.035	100	0	27.2	0	0	0	0	0	0	0	27.2	27.2	27.2	27.2	0;
	320	0	0	0	0	1.04357	100	0	27	0	0	0	0	0	0	0	27	27	27	27	0;
	320	0	0	0	0	1.04357	100	0	28.2	0	0	0	0	0	0	0	28.2	28.2	28.2	28.2	0;
	118	0	0	0	0	1.05	100	0	9.3	0	0	0	0	0	0	0	9.3	9.3	9.3	9.3	0;
	118	0	0	0	0	1.05	100	0	9.7	0	0	0	0	0	0	0	9.7	9.7	9.7	9.7	0;
	118	0	0	0	0	1.05	100	0	9.4	0	0	0	0	0	0	0	9.4	9.4	9.4	9.4	0;
	118	0	0	0	0	1.05	100	0	9.1	0	0	0	0	0	0	0	9.1	9.1	9.1	9.1	0;
	118	0	0	0	0	1.05	100	0	9.1	0	0	0	0	0	0	0	9.1	9.1	9.1	9.1	0;
	118	0	0	0	0	1.05	100	0	9.7	0	0	0	0	0	0	0	9.7	9.7	9.7	9.7	0;
	320	0	0	0	0	1.04357	100	0	9.4	0	0	0	0	0	0	0	9.4	9.4	9.4	9.4	0;
	118	0	0	0	0	1.05	100	0	11.8	0	0	0	0	0	0	0	11.8	11.8	11.8	11.8	0;
	118	0	0	0	0	1.05	100	0	11.2	0	0	0	0	0	0	0	11.2	11.2	11.2	11.2	0;
	118	0	0	0	0	1.05	100	0	10.3	0	0	0	0	0	0	0	10.3	10.3	10.3	10.3	0;
	118	0	0	0	0	1.05	100	0	4.5	0	0	0	0	0	0	0	4.5	4.5	4.5	4.5	0;
	213	0	0	0	0	1.05	100	0	13.2	0	0	0	0	0	0	0	13.2	13.2	13.2	13.2	0;
	309	0	0	0	0	1.00697	100	0	148.3	0	0	0	0	0	0	0	148.3	148.3	148.3	148.3	0;
	317	0	0	0	0	1.04748	100	0	799.1	0	0	0	0	0	0	0	799.1	799.1	799.1	799.1	0;
	303	0	0	0	0	0.998171	100	0	847	0	0	0	0	0	0	0	847	847	847	847	0;
	122	0	0	0	0	1.05	100	0	713.5	0	0	0	0	0	0	0	713.5	713.5	713.5	713.5	0;
	313	0	0	0	0	1.035	100	0	50	0	0	0	0	0	0	0	50	50	50	50	0;
];

%% branch data
%	fbus	tbus	r	x	b	rateA	rateB	rateC	ratio	angle	status	angmin	angmax	Pf	Qf	Pt	Qt
mpc.branch = [
	101	102	0.003	0.014	0.461	175	175	175	0	0	1	-180	180	7.8369	-26.1855	-7.8352	-24.3177;
	101	103	0.055	0.211	0.057	175	175	175	0	0	1	-180	180	-0.5761	14.6482	0.7347	-20.0774;
	101	105	0.022	0.085	0.023	175	175	175	0	0	1	-180	180	52.7391	0.2148	-52.1803	-0.5486;
	102	104	0.033	0.127	0.034	175	175	175	0	0	1	-180	180	34.9385	13.7188	-34.4977	-15.6447;
	102	106	0.05	0.192	0.052	175	175	175	0	0	1	-180	180	43.8968	-4.7421	-43.0157	2.5055;
	103	109	0.031	0.119	0.032	175	175	175	0	0	1	-180	180	3.6761	-15.5596	-3.6133	12.4781;
	103	124	0.002	0.084	0	400	400	400	1.015	0	1	-180	180	-184.4108	-1.3630	185.0960	30.1381;
	104	109	0.027	0.104	0.028	175	175	175	0	0	1	-180	180	-39.5023	0.6447	39.9104	-1.9976;
	105	110	0.023	0.088	0.024	175	175	175	0	0	1	-180	180	-18.8197	-13.4514	18.9275	11.2542;
	106	110	0.014	0.061	2.459	175	175	175	0	0	1	-180	180	-92.9843	-137.0946	94.1247	-124.5390;
	107	108	0.016	0.061	0.017	175	175	175	0	0	1	-180	180	168.7074	19.7393	-164.5148	-5.5708;
	107	203	0.042	0.161	0.044	175	175	175	0	0	1	-180	180	61.2926	4.7664	-59.8418	-3.9126;
	108	109	0.043	0.165	0.045	175	175	175	0	0	1	-180	180	-10.5970	-5.5976	10.6482	1.0967;
	108	110	0.043	0.165	0.045	175	175	175	0	0	1	-180	180	4.1118	-23.8316	-3.9123	19.7903;
	109	111	0.002	0.084	0	400	400	400	1.03	0	1	-180	180	-93.7151	-30.1940	93.9102	38.3906;
	109	112	0.002	0.084	0	400	400	400	1.03	0	1	-180	180	-128.2303	-17.3832	128.5674	31.5417;
	110	111	0.002	0.084	0	400	400	400	1.015	0	1	-180	180	-134.3692	19.5575	134.7138	-5.0851;
	110	112	0.002	0.084	0	400	400	400	1.015	0	1	-180	180	-169.7707	33.9370	170.3309	-10.4093;
	111	113	0.006	0.048	0.1	500	500	500	0	0	1	-180	180	-156.5478	3.5414	157.9462	-2.9812;
	111	114	0.005	0.042	0.088	500	500	500	0	0	1	-180	180	-72.0762	-36.8469	72.3716	29.8905;
	112	113	0.006	0.048	0.1	500	500	500	0	0	1	-180	180	-94.1604	-23.4667	94.6913	17.1626;
	112	123	0.012	0.097	0.203	500	500	500	0	0	1	-180	180	-204.7379	2.3344	209.5951	15.1849;
	113	123	0.011	0.087	0.182	500	500	500	0	0	1	-180	180	-179.7025	8.1099	183.0532	-1.3841;
	113	215	0.01	0.075	0.158	500	500	500	0	0	1	-180	180	-117.9397	-0.2199	119.2453	-7.0515;
	114	116	0.005	0.059	0.082	500	500	500	0	0	1	-180	180	-266.3716	34.3099	269.6949	-4.0512;
	115	116	0.002	0.017	0.036	500	500	500	0	0	1	-180	180	14.5947	-23.8940	-14.5820	20.0754;
	115	121	0.006	0.049	0.103	500	500	500	0	0	1	-180	180	-177.0339	7.9105	178.7732	-4.9840;
	115	121	0.006	0.049	0.103	500	500	500	0	0	1	-180	180	-177.0339	7.9105	178.7732	-4.9840;
	115	124	0.007	0.052	0.109	500	500	500	0	0	1	-180	180	187.4730	36.2745	-185.0960	-30.1381;
	116	117	0.003	0.026	0.055	500	500	500	0	0	1	-180	180	-240.8471	22.8430	242.4556	-14.9339;
	116	119	0.003	0.023	0.049	500	500	500	0	0	1	-180	180	40.7342	21.0076	-40.6733	-25.8707;
	117	118	0.002	0.014	0.03	500	500	500	0	0	1	-180	180	-111.1022	2.5468	111.3271	-4.2744;
	117	122	0.014	0.105	0.221	500	500	500	0	0	1	-180	180	-131.3535	12.3871	133.6281	-19.6544;
	118	121	0.003	0.026	0.055	500	500	500	0	0	1	-180	180	-44.6636	2.3634	44.7186	-7.9499;
	118	121	0.003	0.026	0.055	500	500	500	0	0	1	-180	180	-44.6636	2.3634	44.7186	-7.9499;
	119	120	0.005	0.04	0.083	500	500	500	0	0	1	-180	180	-70.1634	-5.5646	70.3911	-1.6223;
	119	120	0.005	0.04	0.083	500	500	500	0	0	1	-180	180	-70.1634	-5.5646	70.3911	-1.6223;
	120	123	0.003	0.022	0.046	500	500	500	0	0	1	-180	180	-134.3911	-11.3777	134.8905	9.9978;
	120	123	0.003	0.022	0.046	500	500	500	0	0	1	-180	180	-134.3911	-11.3777	134.8905	9.9978;
	121	122	0.009	0.068	0.142	500	500	500	0	0	1	-180	180	-164.0980	22.6321	166.3719	-21.1066;
	123	217	0.01	0.074	0.155	500	500	500	0	0	1	-180	180	7.5707	-8.7284	-7.5655	-8.3124;
	201	202	0.003	0.014	0.461	175	175	175	0	0	1	-180	180	5.2350	-26.5325	-5.2343	-24.2891;
	201	203	0.055	0.211	0.057	175	175	175	0	0	1	-180	180	-24.8421	19.9298	25.4155	-23.8287;
	201	205	0.022	0.085	0.023	175	175	175	0	0	1	-180	180	53.6070	6.3367	-53.0221	-6.5726;
	202	204	0.033	0.127	0.034	175	175	175	0	0	1	-180	180	31.4895	19.0652	-31.0615	-21.0444;
	202	206	0.05	0.192	0.052	175	175	175	0	0	1	-180	180	44.7448	-0.4956	-43.8342	-1.6196;
	203	209	0.031	0.119	0.032	175	175	175	0	0	1	-180	180	38.7954	-12.0742	-38.3133	10.6003;
	203	224	0.002	0.084	0	400	400	400	1.015	0	1	-180	180	-184.3691	2.8155	185.0444	25.5463;
	204	209	0.027	0.104	0.028	175	175	175	0	0	1	-180	180	-42.9385	6.0444	43.4362	-7.0274;
	205	210	0.023	0.088	0.024	175	175	175	0	0	1	-180	180	-17.9779	-7.4274	18.0557	5.1383;
	206	210	0.014	0.061	2.459	175	175	175	0	0	1	-180	180	-92.1658	-131.9623	93.2927	-126.6362;
	207	208	0.016	0.061	0.017	175	175	175	0	0	1	-180	180	-15.0000	12.9999	15.0707	-14.3196;
	208	209	0.043	0.165	0.045	175	175	175	0	0	1	-180	180	-101.3223	0.2222	106.0774	13.5931;
	208	210	0.043	0.165	0.045	175	175	175	0	0	1	-180	180	-84.7484	-20.9026	88.2372	29.7533;
	209	211	0.002	0.084	0	400	400	400	1.03	0	1	-180	180	-125.3809	-35.4132	125.7270	49.9513;
	209	212	0.002	0.084	0	400	400	400	1.03	0	1	-180	180	-160.8195	-17.7528	161.3533	40.1734;
	210	211	0.002	0.084	0	400	400	400	1.015	0	1	-180	180	-179.2963	15.9761	179.9103	9.8108;
	210	212	0.002	0.084	0	400	400	400	1.015	0	1	-180	180	-215.2893	35.7685	216.1918	2.1361;
	211	213	0.006	0.048	0.1	500	500	500	0	0	1	-180	180	-218.9937	-13.7138	221.7188	24.7142;
	211	214	0.005	0.042	0.088	500	500	500	0	0	1	-180	180	-86.6436	-46.0482	87.0796	40.2063;
	212	213	0.006	0.048	0.1	500	500	500	0	0	1	-180	180	-152.0950	-49.6577	153.5495	50.6018;
	212	223	0.012	0.097	0.203	500	500	500	0	0	1	-180	180	-225.4501	7.3483	231.3751	18.8413;
	213	223	0.011	0.087	0.182	500	500	500	0	0	1	-180	180	-175.2682	24.9318	178.4551	-19.7918;
	214	216	0.005	0.059	0.082	500	500	500	0	0	1	-180	180	-281.0796	46.0807	284.7787	-11.4480;
	215	216	0.002	0.017	0.036	500	500	500	0	0	1	-180	180	4.4708	-24.5847	-4.4611	20.7326;
	215	221	0.006	0.049	0.103	500	500	500	0	0	1	-180	180	-184.0533	11.2660	185.9349	-7.1876;
	215	221	0.006	0.049	0.103	500	500	500	0	0	1	-180	180	-184.0533	11.2660	185.9349	-7.1876;
	215	224	0.007	0.052	0.109	500	500	500	0	0	1	-180	180	187.3906	31.4057	-185.0444	-25.5463;
	216	217	0.003	0.026	0.055	500	500	500	0	0	1	-180	180	-248.0754	24.5325	249.7794	-15.8093;
	216	219	0.003	0.023	0.049	500	500	500	0	0	1	-180	180	22.7577	25.9946	-22.7211	-31.0524;
	217	218	0.002	0.014	0.03	500	500	500	0	0	1	-180	180	-110.8257	10.6555	111.0515	-12.3805;
	217	222	0.014	0.105	0.221	500	500	500	0	0	1	-180	180	-131.3882	13.4663	133.6663	-20.7327;
	218	221	0.003	0.026	0.055	500	500	500	0	0	1	-180	180	-44.5258	2.3461	44.5805	-7.9354;
	218	221	0.003	0.026	0.055	500	500	500	0	0	1	-180	180	-44.5258	2.3461	44.5805	-7.9354;
	219	220	0.005	0.04	0.083	500	500	500	0	0	1	-180	180	-79.1395	-2.9738	79.4289	-3.7259;
	219	220	0.005	0.04	0.083	500	500	500	0	0	1	-180	180	-79.1395	-2.9738	79.4289	-3.7259;
	220	223	0.003	0.022	0.046	500	500	500	0	0	1	-180	180	-143.4289	-9.2741	143.9964	8.3928;
	220	223	0.003	0.022	0.046	500	500	500	0	0	1	-180	180	-143.4289	-9.2741	143.9964	8.3928;
	221	222	0.009	0.068	0.142	500	500	500	0	0	1	-180	180	-164.0608	22.6232	166.3337	-21.1055;
	301	302	0.003	0.014	0.461	175	175	175	0	0	1	-180	180	8.6441	-27.2597	-8.6420	-23.5556;
	301	303	0.055	0.211	0.057	175	175	175	0	0	1	-180	180	-39.8563	35.5558	41.3959	-35.6313;
	301	305	0.022	0.085	0.023	175	175	175	0	0	1	-180	180	27.2122	18.6753	-26.9851	-20.2817;
	302	304	0.033	0.127	0.034	175	175	175	0	0	1	-180	180	11.1372	30.4972	-10.7864	-32.7465;
	302	306	0.05	0.192	0.052	175	175	175	0	0	1	-180	180	26.5048	7.3583	-26.1388	-11.5223;
	303	309	0.031	0.119	0.032	175	175	175	0	0	1	-180	180	26.1379	-15.2612	-25.8672	13.0837;
	303	324	0.002	0.084	0	400	400	400	1.015	0	1	-180	180	-247.5337	13.8925	248.8049	39.4946;
	304	309	0.027	0.104	0.028	175	175	175	0	0	1	-180	180	-63.2136	17.7465	64.3746	-16.1149;
	305	310	0.023	0.088	0.024	175	175	175	0	0	1	-180	180	-44.0149	6.2817	44.4487	-7.1700;
	306	310	0.014	0.061	2.459	175	175	175	0	0	1	-180	180	-109.8612	-120.4390	111.4939	-131.3246;
	307	308	0.016	0.061	0.017	175	175	175	0	0	1	-180	180	-15.0000	12.9775	15.0724	-14.2478;
	308	309	0.043	0.165	0.045	175	175	175	0	0	1	-180	180	-101.8731	1.2125	106.8164	13.4414;
	308	310	0.043	0.165	0.045	175	175	175	0	0	1	-180	180	-84.1993	-21.9648	87.7618	31.2033;
	309	311	0.002	0.084	0	400	400	400	1.03	0	1	-180	180	-143.4882	-35.0651	143.9447	54.2405;
	309	312	0.002	0.084	0	400	400	400	1.03	0	1	-180	180	-176.8356	-11.3451	177.4926	38.9409;
	310	311	0.002	0.084	0	400	400	400	1.015	0	1	-180	180	-202.5739	20.5417	203.3753	13.1164;
	310	312	0.002	0.084	0	400	400	400	1.015	0	1	-180	180	-236.1306	46.7496	237.2506	0.2920;
	311	313	0.006	0.048	0.1	500	500	500	0	0	1	-180	180	-199.5491	-6.9980	201.8542	14.9003;
	311	314	0.005	0.042	0.088	500	500	500	0	0	1	-180	180	-147.7709	-60.3589	148.9744	61.0565;
	312	313	0.006	0.048	0.1	500	500	500	0	0	1	-180	180	-134.8578	-52.0927	136.0757	51.4543;
	312	323	0.012	0.097	0.203	500	500	500	0	0	1	-180	180	-279.8854	12.8598	289.3014	41.8608;
	313	323	0.011	0.087	0.182	500	500	500	0	0	1	-180	180	-247.9299	29.6251	254.4012	1.7756;
	314	316	0.005	0.059	0.082	500	500	500	0	0	1	-180	180	-342.9744	66.6664	348.5390	-10.0011;
	315	316	0.002	0.017	0.036	500	500	500	0	0	1	-180	180	35.6404	-22.5876	-35.6091	18.9326;
	315	321	0.006	0.049	0.103	500	500	500	0	0	1	-180	180	-207.9330	13.1946	210.3409	-4.8023;
	315	321	0.006	0.049	0.103	500	500	500	0	0	1	-180	180	-207.9330	13.1946	210.3409	-4.8023;
	315	324	0.007	0.052	0.109	500	500	500	0	0	1	-180	180	253.2257	60.9735	-248.8049	-39.4946;
	316	317	0.003	0.026	0.055	500	500	500	0	0	1	-180	180	-286.6829	29.7578	288.9706	-15.9504;
	316	319	0.003	0.023	0.049	500	500	500	0	0	1	-180	180	28.7530	20.4396	-28.7156	-25.4727;
	317	318	0.002	0.014	0.03	500	500	500	0	0	1	-180	180	-150.0046	2.3398	150.4151	-2.7662;
	317	322	0.014	0.105	0.221	500	500	500	0	0	1	-180	180	-138.9660	13.6106	141.5146	-18.8028;
	318	321	0.003	0.026	0.055	500	500	500	0	0	1	-180	180	-50.1664	3.0617	50.2359	-8.5232;
	318	321	0.003	0.026	0.055	500	500	500	0	0	1	-180	180	-50.1664	3.0617	50.2359	-8.5232;
	319	320	0.005	0.04	0.083	500	500	500	0	0	1	-180	180	-76.1422	-5.7637	76.4108	-1.0871;
	319	320	0.005	0.04	0.083	500	500	500	0	0	1	-180	180	-76.1422	-5.7637	76.4108	-1.0871;
	320	323	0.003	0.022	0.046	500	500	500	0	0	1	-180	180	-140.4108	-11.9129	140.9563	10.8730;
	320	323	0.003	0.022	0.046	500	500	500	0	0	1	-180	180	-140.4108	-11.9129	140.9563	10.8730;
	321	322	0.009	0.068	0.142	500	500	500	0	0	1	-180	180	-166.1536	23.1267	168.4854	-21.1638;
	325	121	0.012	0.097	0.203	500	500	500	0	0	1	-180	180	-115.6153	8.4456	117.1143	-18.6930;
	318	223	0.013	0.104	0.218	500	500	500	0	0	1	-180	180	-28.0823	-8.1219	28.1771	-15.1543;
	323	325	0	0.009	0	722	722	722	0	0	1	-180	180	-115.6153	9.5442	115.6153	-8.4456;
];

%%-----  OPF Data  -----%%
%% area data
%	area	refbus
mpc.areas = [
	1	101;
	2	201;
	3	301;
];

%% generator cost data
%	1	startup	shutdown	n	x1	y1	...	xn	yn
%	2	startup	shutdown	n	c(n-1)	...	c0
mpc.gencost = [
	1	51.747	51.747	4	8	1085.77625	12	1477.23196	16	1869.51562	20	2298.06357;
	1	51.747	51.747	4	8	1085.77625	12	1477.23196	16	1869.51562	20	2298.06357;
	1	11172.0143	11172.0143	4	30	841.57942	45.33333	1059.17805	60.66667	1319.40176	76	1596.51343;
	1	11172.0143	11172.0143	4	30	841.57942	45.33333	1059.17805	60.66667	1319.40176	76	1596.51343;
	1	51.747	51.747	4	8	1212.03893	12	1567.9341	16	1946.59795	20	2344.92565;
	1	51.747	51.747	4	8	1212.03893	12	1567.9341	16	1946.59795	20	2344.92565;
	1	11172.0143	11172.0143	4	30	735.09774	45.33333	1018.2061	60.66667	1337.84562	76	1683.0926;
	1	11172.0143	11172.0143	4	30	735.09774	45.33333	1018.2061	60.66667	1337.84562	76	1683.0926;
	1	28046.681	28046.681	4	170	4772.49548	231.66667	6203.57553	293.33333	7855.66994	355	9738.3672;
	1	5665.23443	5665.23443	4	22	1122.43477	33	1417.43201	44	1742.48912	55	2075.88432;
	1	5665.23443	5665.23443	4	22	1122.43477	33	1417.43201	44	1742.48912	55	2075.88432;
	1	5665.23443	5665.23443	4	22	1122.43477	33	1417.43201	44	1742.48912	55	2075.88432;
	1	5665.23443	5665.23443	4	22	1122.43477	33	1417.43201	44	1742.48912	55	2075.88432;
	1	703.7592	703.7592	4	5	897.29298	7.33333	1187.80064	9.66667	1479.58817	12	1791.41904;
	1	703.7592	703.7592	4	5	897.29298	7.33333	1187.80064	9.66667	1479.58817	12	1791.41904;
	1	22784.7956	22784.7956	4	62	1500.19723	93	2132.59734	124	2829.8758	155	3668.4449;
	1	22784.7956	22784.7956	4	62	1735.06998	93	2345.3197	124	3011.01092	155	3751.14842;
	1	28046.681	28046.681	4	170	4795.62444	231.66667	6187.87116	293.33333	7899.41412	355	9901.2482;
	1	22784.7956	22784.7956	4	62	1437.41596	93	2039.7361	124	2751.75964	155	3775.85462;
	1	36749.8136	36749.8136	4	140	3582.87481	210	4981.72313	280	6497.03117	350	8137.67767;
	1	5665.23443	5665.23443	4	22	1088.22724	33	1377.15264	44	1704.98911	55	2046.97895;
	1	5665.23443	5665.23443	4	22	1088.22724	33	1377.15264	44	1704.98911	55	2046.97895;
	1	5665.23443	5665.23443	4	22	1088.22724	33	1377.15264	44	1704.98911	55	2046.97895;
	1	51.747	51.747	4	8	1157.22851	12	1487.12598	16	1822.73633	20	2269.08525;
	1	51.747	51.747	4	8	1157.22851	12	1487.12598	16	1822.73633	20	2269.08525;
	1	11172.0143	11172.0143	4	30	823.75848	45.33333	1163.9488	60.66667	1523.42575	76	1918.3966;
	1	51.747	51.747	4	8	1131.23082	12	1455.62241	16	1805.10095	20	2196.47386;
	1	51.747	51.747	4	8	1131.23082	12	1455.62241	16	1805.10095	20	2196.47386;
	1	11172.0143	11172.0143	4	30	751.26977	45.33333	1075.05834	60.66667	1401.47249	76	1819.68454;
	1	11172.0143	11172.0143	4	30	751.26977	45.33333	1075.05834	60.66667	1401.47249	76	1819.68454;
	1	5665.23443	5665.23443	4	22	1116.10638	33	1492.56031	44	1897.96238	55	2366.39182;
	1	5665.23443	5665.23443	4	22	1116.10638	33	1492.56031	44	1897.96238	55	2366.39182;
	1	28046.681	28046.681	4	170	5170.31357	231.66667	6688.64875	293.33333	8361.5981	355	10458.8375;
	1	5665.23443	5665.23443	4	22	1122.43477	33	1417.43201	44	1742.48912	55	2075.88432;
	1	5665.23443	5665.23443	4	22	1122.43477	33	1417.43201	44	1742.48912	55	2075.88432;
	1	5665.23443	5665.23443	4	22	1216.84757	33	1501.96739	44	1800.72745	55	2160.80453;
	1	5665.23443	5665.23443	4	22	1216.84757	33	1501.96739	44	1800.72745	55	2160.80453;
	1	22784.7956	22784.7956	4	62	1426.14416	93	2001.92316	124	2679.08278	155	3412.47031;
	1	28046.681	28046.681	4	170	7523.51994	231.66667	8815.08767	293.33333	10151.4815	355	11987.1952;
	1	28046.681	28046.681	4	170	4551.1183	231.66667	5977.40411	293.33333	7600.7331	355	9828.37578;
	1	22784.7956	22784.7956	4	62	1422.99854	93	2013.06389	124	2623.44468	155	3256.43459;
	1	22784.7956	22784.7956	4	62	1422.99854	93	2013.06389	124	2623.44468	155	3256.43459;
	1	36749.8136	36749.8136	4	140	3323.31912	210	4643.59043	280	6258.48853	350	7981.70748;
	1	5665.23443	5665.23443	4	22	1692.75992	33	2103.03655	44	2540.25162	55	2996.75119;
	1	5665.23443	5665.23443	4	22	1692.75992	33	2103.03655	44	2540.25162	55	2996.75119;
	1	5665.23443	5665.23443	4	22	1692.75992	33	2103.03655	44	2540.25162	55	2996.75119;
	1	51.747	51.747	4	8	1208.23035	12	1557.25352	16	1956.0366	20	2377.50557;
	1	51.747	51.747	4	8	1208.23035	12	1557.25352	16	1956.0366	20	2377.50557;
	1	5665.23443	5665.23443	4	22	1119.44162	33	1432.61161	44	1754.76108	55	2235.93283;
	1	5665.23443	5665.23443	4	22	1119.44162	33	1432.61161	44	1754.76108	55	2235.93283;
	1	51.747	51.747	4	8	1208.23035	12	1557.25352	16	1956.0366	20	2377.50557;
	1	51.747	51.747	4	8	1208.23035	12	1557.25352	16	1956.0366	20	2377.50557;
	1	5665.23443	5665.23443	4	22	1316.56254	33	1688.27018	44	2110.47669	55	2535.46257;
	1	5665.23443	5665.23443	4	22	1316.56254	33	1688.27018	44	2110.47669	55	2535.46257;
	1	5665.23443	5665.23443	4	22	1141.93307	33	1448.77467	44	1770.19723	55	2160.4197;
	1	5665.23443	5665.23443	4	22	1141.93307	33	1448.77467	44	1770.19723	55	2160.4197;
	1	28046.681	28046.681	4	170	5243.00459	231.66667	6213.11865	293.33333	7863.05566	355	9944.47408;
	1	703.7592	703.7592	4	5	745.67427	7.33333	921.69342	9.66667	1155.95898	12	1445.52485;
	1	703.7592	703.7592	4	5	745.67427	7.33333	921.69342	9.66667	1155.95898	12	1445.52485;
	1	703.7592	703.7592	4	5	745.67427	7.33333	921.69342	9.66667	1155.95898	12	1445.52485;
	1	703.7592	703.7592	4	5	745.67427	7.33333	921.69342	9.66667	1155.95898	12	1445.52485;
	1	703.7592	703.7592	4	5	745.67427	7.33333	921.69342	9.66667	1155.95898	12	1445.52485;
	1	5665.23443	5665.23443	4	22	884.43584	33	1174.85782	44	1470.71025	55	1821.1237;
	1	5665.23443	5665.23443	4	22	884.43584	33	1174.85782	44	1470.71025	55	1821.1237;
	1	5665.23443	5665.23443	4	22	884.43584	33	1174.85782	44	1470.71025	55	1821.1237;
	1	22784.7956	22784.7956	4	62	1552.62418	93	2207.24021	124	2867.16447	155	3712.68014;
	1	28046.681	28046.681	4	170	5254.89948	231.66667	6910.34987	293.33333	8592.40827	355	10536.7115;
	1	28046.681	28046.681	4	170	4775.79962	231.66667	6177.63481	293.33333	7775.31462	355	9868.71865;
	1	5665.23443	5665.23443	4	22	1031.69929	33	1288.38408	44	1579.87505	55	1886.71665;
	1	5665.23443	5665.23443	4	22	1031.69929	33	1288.38408	44	1579.87505	55	1886.71665;
	1	28046.681	28046.681	4	170	4877.56703	231.66667	6507.36825	293.33333	8374.48424	355	10331.0128;
	1	28046.681	28046.681	4	170	4877.56703	231.66667	6507.36825	293.33333	8374.48424	355	10331.0128;
	1	0	0	4	0	0	0.33333	0	0.66667	0	1	0;
	1	63999.8223	63999.8223	4	396	3208.986	397.33333	3219.79067	398.66667	3230.59533	400	3241.4;
	1	0	0	4	0	0	16.66667	0	33.33333	0	50	0;
	1	0	0	4	0	0	16.66667	0	33.33333	0	50	0;
	1	0	0	4	0	0	16.66667	0	33.33333	0	50	0;
	1	0	0	4	0	0	16.66667	0	33.33333	0	50	0;
	1	0	0	4	0	0	16.66667	0	33.33333	0	50	0;
	1	0	0	4	0	0	16.66667	0	33.33333	0	50	0;
	1	0	0	4	0	0	16.66667	0	33.33333	0	50	0;
	1	0	0	4	0	0	0.33333	0	0.66667	0	1	0;
	1	0	0	4	0	0	16.66667	0	33.33333	0	50	0;
	1	0	0	4	0	0	16.66667	0	33.33333	0	50	0;
	1	0	0	4	0	0	16.66667	0	33.33333	0	50	0;
	1	0	0	4	0	0	16.66667	0	33.33333	0	50	0;
	1	0	0	4	0	0	16.66667	0	33.33333	0	50	0;
	1	0	0	4	0	0	16.66667	0	33.33333	0	50	0;
	1	0	0	4	0	0	16.66667	0	33.33333	0	50	0;
	1	0	0	4	0	0	16.66667	0	33.33333	0	50	0;
	1	0	0	4	0	0	16.66667	0	33.33333	0	50	0;
	1	0	0	4	0	0	0.33333	0	0.66667	0	1	0;
	1	0	0	4	0	0	16.66667	0	33.33333	0	50	0;
	1	0	0	4	0	0	16.66667	0	33.33333	0	50	0;
	1	0	0	4	0	0	16.66667	0	33.33333	0	50	0;
	1	0	0	4	0	0	16.66667	0	33.33333	0	50	0;
	1	0	0	4	0	0	17.2	0	34.4	0	51.6	0;
	1	0	0	4	0	0	17.2	0	34.4	0	51.6	0;
	1	0	0	4	0	0	17.2	0	34.4	0	51.6	0;
	1	0	0	4	0	0	31.7	0	63.4	0	95.1	0;
	1	0	0	4	0	0	30.9	0	61.8	0	92.7	0;
	1	0	0	4	0	0	17.2	0	34.4	0	51.6	0;
	1	0	0	4	0	0	31.1	0	62.2	0	93.3	0;
	1	0	0	4	0	0	17.23333	0	34.46667	0	51.7	0;
	1	0	0	4	0	0	16.56667	0	33.13333	0	49.7	0;
	1	0	0	4	0	0	31.36667	0	62.73333	0	94.1	0;
	1	0	0	4	0	0	17.2	0	34.4	0	51.6	0;
	1	0	0	4	0	0	17.2	0	34.4	0	51.6	0;
	1	0	0	4	0	0	17	0	34	0	51	0;
	1	0	0	4	0	0	31.2	0	62.4	0	93.6	0;
	1	0	0	4	0	0	62.73333	0	125.46667	0	188.2	0;
	1	0	0	4	0	0	41.7	0	83.4	0	125.1	0;
	1	0	0	4	0	0	8.53333	0	17.06667	0	25.6	0;
	1	0	0	4	0	0	8.63333	0	17.26667	0	25.9	0;
	1	0	0	4	0	0	8.43333	0	16.86667	0	25.3	0;
	1	0	0	4	0	0	8.93333	0	17.86667	0	26.8	0;
	1	10000	0	4	30	0	66	0	120	0	160	0;
	1	0	0	4	0	0	8.9	0	17.8	0	26.7	0;
	1	0	0	4	0	0	8.73333	0	17.46667	0	26.2	0;
	1	0	0	4	0	0	8.6	0	17.2	0	25.8	0;
	1	0	0	4	0	0	20.5	0	41	0	61.5	0;
	1	0	0	4	0	0	22.2	0	44.4	0	66.6	0;
	1	0	0	4	0	0	33.63333	0	67.26667	0	100.9	0;
	1	0	0	4	0	0	33.9	0	67.8	0	101.7	0;
	1	0	0	4	0	0	21.03333	0	42.06667	0	63.1	0;
	1	0	0	4	0	0	21.8	0	43.6	0	65.4	0;
	1	0	0	4	0	0	22.33333	0	44.66667	0	67	0;
	1	0	0	4	0	0	21.6	0	43.2	0	64.8	0;
	1	0	0	4	0	0	21.26667	0	42.53333	0	63.8	0;
	1	0	0	4	0	0	21.36667	0	42.73333	0	64.1	0;
	1	0	0	4	0	0	22.2	0	44.4	0	66.6	0;
	1	0	0	4	0	0	20.8	0	41.6	0	62.4	0;
	1	0	0	4	0	0	22.3	0	44.6	0	66.9	0;
	1	0	0	4	0	0	21.73333	0	43.46667	0	65.2	0;
	1	0	0	4	0	0	9.26667	0	18.53333	0	27.8	0;
	1	0	0	4	0	0	9.1	0	18.2	0	27.3	0;
	1	0	0	4	0	0	9	0	18	0	27	0;
	1	0	0	4	0	0	9.43333	0	18.86667	0	28.3	0;
	1	0	0	4	0	0	9.06667	0	18.13333	0	27.2	0;
	1	0	0	4	0	0	9	0	18	0	27	0;
	1	0	0	4	0	0	9.4	0	18.8	0	28.2	0;
	1	0	0	4	0	0	3.1	0	6.2	0	9.3	0;
	1	0	0	4	0	0	3.23333	0	6.46667	0	9.7	0;
	1	0	0	4	0	0	3.13333	0	6.26667	0	9.4	0;
	1	0	0	4	0	0	3.03333	0	6.06667	0	9.1	0;
	1	0	0	4	0	0	3.03333	0	6.06667	0	9.1	0;
	1	0	0	4	0	0	3.23333	0	6.46667	0	9.7	0;
	1	0	0	4	0	0	3.13333	0	6.26667	0	9.4	0;
	1	0	0	4	0	0	3.93333	0	7.86667	0	11.8	0;
	1	0	0	4	0	0	3.73333	0	7.46667	0	11.2	0;
	1	0	0	4	0	0	3.43333	0	6.86667	0	10.3	0;
	1	0	0	4	0	0	1.5	0	3	0	4.5	0;
	1	0	0	4	0	0	4.4	0	8.8	0	13.2	0;
	1	0	0	4	0	0	49.43333	0	98.86667	0	148.3	0;
	1	0	0	4	0	0	266.36667	0	532.73333	0	799.1	0;
	1	0	0	4	0	0	282.33333	0	564.66667	0	847	0;
	1	0	0	4	0	0	237.83333	0	475.66667	0	713.5	0;
	1	0	0	4	0	0	16.66667	0	33.33333	0	50	0;
];

%% bus names
mpc.bus_name = {
	'ABEL';
	'ADAMS';
	'ADLER';
	'AGRICOLA';
	'AIKEN';
	'ALBER';
	'ALDER';
	'ALGER';
	'ALI';
	'ALLEN';
	'ANNA';
	'ARCHER';
	'ARNE';
	'ARNOLD';
	'ARTHUR';
	'ASSER';
	'ASTON';
	'ASTOR';
	'ATTAR';
	'ATTILA';
	'ATTLEE';
	'AUBREY';
	'AUSTEN';
	'AVERY';
	'BACH';
	'BACON';
	'BAFFIN';
	'BAILEY';
	'BAIN';
	'BAJER';
	'BAKER';
	'BALCH';
	'BALZAC';
	'BANKS';
	'BARDEEN';
	'BARKLA';
	'BARLOW';
	'BARRY';
	'BARTON';
	'BASOV';
	'BATES';
	'BAYLE';
	'BEDE';
	'BEETHOVEN';
	'BEHRING';
	'BELL';
	'BLOCH';
	'BORDET';
	'CABELL';
	'CABOT';
	'CAESAR';
	'CAINE';
	'CALVIN';
	'CAMUS';
	'CAREW';
	'CARREL';
	'CARTER';
	'CARUSO';
	'CARY';
	'CAXTON';
	'CECIL';
	'CHAIN';
	'CHASE';
	'CHIFA';
	'CHUHSI';
	'CLARK';
	'CLAY';
	'CLIVE';
	'COBB';
	'COLE';
	'COMTE';
	'CURIE';
	'CURTISS';
};
